test/data/pglib/v23.07/pglib_opf_case3_lmbd.m
% IEEE PES Power Grid Library - Optimal Power Flow - v23.07
% Source: https://github.com/power-grid-lib/pglib-opf
% Copyright (c) 2011 IEEE. CC BY 4.0.
function mpc = pglib_opf_case3_lmbd
mpc.version = '2';
mpc.baseMVA = 100.0;
mpc.bus = [
  1 3 110.0 40.0 0.0 0.0 1 1.0 0.0 240.0 1 1.1 0.9;
  2 2 110.0 40.0 0.0 0.0 1 1.0 0.0 240.0 1 1.1 0.9;
  3 2  95.0 50.0 0.0 0.0 1 1.0 0.0 240.0 1 1.1 0.9;
];
mpc.gen = [
  1 1000.0 0.0 1000.0 -1000.0 1.0 100.0 1 2000.0 0.0;
  2 1000.0 0.0 1000.0 -1000.0 1.0 100.0 1 2000.0 0.0;
  3    0.0 0.0 1000.0 -1000.0 1.0 100.0 1    0.0 0.0;
];
mpc.gencost = [
  2 0.0 0.0 3 0.110000 5.000000 0.0;
  2 0.0 0.0 3 0.085000 1.200000 0.0;
  2 0.0 0.0 3 0.000000 0.000000 0.0;
];
mpc.branch = [
  1 3 0.065 0.62 0.45 9000.0 9000.0 9000.0 0.0 0.0 1 -30.0 30.0;
  3 2 0.025 0.75 0.70   50.0   50.0   50.0 0.0 0.0 1 -30.0 30.0;
  1 2 0.042 0.90 0.30 9000.0 9000.0 9000.0 0.0 0.0 1 -30.0 30.0;
];
